<?xml version="1.0" encoding="UTF-8"?>

<!-- generated on 2025-05-05 21:36:08 by Eclipse SUMO netedit Version 1.20.0
<configuration xmlns:xsi="http://www.w3.org/2001/XMLSchema-instance" xsi:noNamespaceSchemaLocation="http://sumo.dlr.de/xsd/neteditConfiguration.xsd">

    <input>
        <sumo-net-file value="circle.net.xml"/>
    </input>

    <output>
        <output-file value="circle.net.xml"/>
    </output>

    <processing>
        <geometry.min-radius.fix.railways value="false"/>
        <geometry.max-grade.fix value="false"/>
        <offset.disable-normalization value="true"/>
        <lefthand value="0"/>
    </processing>

    <junctions>
        <no-internal-links value="true"/>
        <no-turnarounds value="true"/>
        <junctions.corner-detail value="5"/>
        <junctions.limit-turn-speed value="5.50"/>
        <rectangular-lane-cut value="0"/>
    </junctions>

    <pedestrian>
        <walkingareas value="0"/>
    </pedestrian>

</configuration>
-->

<net version="1.20" junctionCornerDetail="5" limitTurnSpeed="5.50" xmlns:xsi="http://www.w3.org/2001/XMLSchema-instance" xsi:noNamespaceSchemaLocation="http://sumo.dlr.de/xsd/net_file.xsd">

    <location netOffset="100.00,100.00" convBoundary="0.00,0.00,200.00,200.00" origBoundary="-100.00,-100.00,100.00,100.00" projParameter="!"/>

    <edge id="-B999B1000" from="J0" to="B999" priority="-1" shape="0.05,103.01 0.07,103.68 0.09,104.29 0.12,104.91 0.15,105.52 0.19,106.13 0.23,106.74 0.27,107.36 0.32,107.97 0.37,108.58 0.42,109.19 0.48,109.80 0.54,110.41 0.61,111.02 0.68,111.63 0.75,112.24 0.83,112.85 0.91,113.46 0.99,114.07 1.08,114.67 1.17,115.28 1.27,115.89 1.37,116.49 1.47,117.10 1.58,117.70 1.69,118.30 1.80,118.91 1.92,119.51 2.04,120.11 2.17,120.71 2.30,121.31 2.43,121.91 2.57,122.51 2.71,123.11 2.85,123.70 3.00,124.30 3.15,124.89 3.30,125.49 3.46,126.08 3.62,126.67 3.79,127.26 3.96,127.85 4.13,128.44 4.31,129.03 4.49,129.62 4.67,130.20 4.86,130.78 5.05,131.37 5.24,131.95 5.44,132.53 5.64,133.11 5.85,133.69 6.05,134.27 6.27,134.84 6.48,135.42 6.70,135.99 6.92,136.56 7.15,137.13 7.38,137.70 7.61,138.27 7.85,138.83 8.09,139.40 8.33,139.96 8.58,140.52 8.83,141.08 9.08,141.64 9.34,142.20 9.60,142.76 9.87,143.31 10.13,143.86 10.40,144.41 10.68,144.96 10.96,145.51 11.24,146.05 11.52,146.60 11.81,147.14 12.10,147.68 12.39,148.22 12.69,148.76 12.99,149.29 13.30,149.82 13.60,150.35 13.91,150.88 14.23,151.41 14.54,151.94 14.86,152.46 15.19,152.98 15.51,153.50 15.84,154.02 16.18,154.53 16.51,155.05 16.85,155.56 17.20,156.07 17.54,156.57 17.89,157.08 18.24,157.58 18.60,158.08 18.95,158.58 19.32,159.08 19.68,159.57 20.05,160.06 20.42,160.55 20.79,161.04 21.17,161.52 21.54,162.01 21.93,162.49 22.31,162.96 22.70,163.44 23.09,163.91 23.48,164.38 23.88,164.85 24.28,165.32 24.68,165.78 25.09,166.24 25.49,166.70 25.90,167.16 26.32,167.61 26.73,168.06 27.15,168.51 27.58,168.95 28.00,169.40 28.43,169.84 28.86,170.28 29.29,170.71 29.72,171.14 30.16,171.57 30.60,172.00 31.05,172.42 31.49,172.85 31.94,173.27 32.39,173.68 32.84,174.10 33.30,174.51 33.76,174.91 34.22,175.32 34.68,175.72 35.15,176.12 35.62,176.52 36.09,176.91 36.56,177.30 37.04,177.69 37.51,178.07 37.99,178.46 38.48,178.83 38.96,179.21 39.45,179.58 39.94,179.95 40.43,180.32 40.92,180.68 41.42,181.05 41.92,181.40 42.42,181.76 42.92,182.11 43.43,182.46 43.93,182.80 44.44,183.15 44.95,183.49 45.47,183.82 45.98,184.16 46.50,184.49 47.02,184.81 47.54,185.14 48.06,185.46 48.59,185.77 49.12,186.09 49.65,186.40 50.18,186.70 50.71,187.01 51.24,187.31 51.78,187.61 52.32,187.90 52.86,188.19 53.40,188.48 53.95,188.76 54.49,189.04 55.04,189.32 55.59,189.60 56.14,189.87 56.69,190.13 57.24,190.40 57.80,190.66 58.36,190.92 58.92,191.17 59.48,191.42 60.04,191.67 60.60,191.91 61.17,192.15 61.73,192.39 62.30,192.62 62.87,192.85 63.44,193.08 64.01,193.30 64.58,193.52 65.16,193.73 65.73,193.95 66.31,194.15 66.89,194.36 67.47,194.56 68.05,194.76 68.63,194.95 69.22,195.14 69.80,195.33 70.38,195.51 70.97,195.69 71.56,195.87 72.15,196.04 72.74,196.21 73.33,196.38 73.92,196.54 74.51,196.70 75.11,196.85 75.70,197.00 76.30,197.15 76.89,197.29 77.49,197.43 78.09,197.57 78.69,197.70 79.29,197.83 79.89,197.96 80.49,198.08 81.09,198.20 81.70,198.31 82.30,198.42 82.90,198.53 83.51,198.63 84.11,198.73 84.72,198.83 85.33,198.92 85.93,199.01 86.54,199.09 87.15,199.17 87.76,199.25 88.37,199.32 88.98,199.39 89.59,199.46 90.20,199.52 90.81,199.58 91.42,199.63 92.03,199.68 92.64,199.73 93.26,199.77 93.87,199.81 94.48,199.85 95.09,199.88 95.71,199.91 96.32,199.93 96.93,199.95 97.55,199.97 98.16,199.98 98.77,199.99 99.39,200.00 100.00,200.00 100.61,200.00 101.23,199.99 101.84,199.98 102.45,199.97 103.07,199.95 103.68,199.93 104.29,199.91 104.91,199.88 105.52,199.85 106.13,199.81 106.74,199.77 107.36,199.73 107.97,199.68 108.58,199.63 109.19,199.58 109.80,199.52 110.41,199.46 111.02,199.39 111.63,199.32 112.24,199.25 112.85,199.17 113.46,199.09 114.07,199.01 114.67,198.92 115.28,198.83 115.89,198.73 116.49,198.63 117.10,198.53 117.70,198.42 118.30,198.31 118.91,198.20 119.51,198.08 120.11,197.96 120.71,197.83 121.31,197.70 121.91,197.57 122.51,197.43 123.11,197.29 123.70,197.15 124.30,197.00 124.89,196.85 125.49,196.70 126.08,196.54 126.67,196.38 127.26,196.21 127.85,196.04 128.44,195.87 129.03,195.69 129.62,195.51 130.20,195.33 130.78,195.14 131.37,194.95 131.95,194.76 132.53,194.56 133.11,194.36 133.69,194.15 134.27,193.95 134.84,193.73 135.42,193.52 135.99,193.30 136.56,193.08 137.13,192.85 137.70,192.62 138.27,192.39 138.83,192.15 139.40,191.91 139.96,191.67 140.52,191.42 141.08,191.17 141.64,190.92 142.20,190.66 142.76,190.40 143.31,190.13 143.86,189.87 144.41,189.60 144.96,189.32 145.51,189.04 146.05,188.76 146.60,188.48 147.14,188.19 147.68,187.90 148.22,187.61 148.76,187.31 149.29,187.01 149.82,186.70 150.35,186.40 150.88,186.09 151.41,185.77 151.94,185.46 152.46,185.14 152.98,184.81 153.50,184.49 154.02,184.16 154.53,183.82 155.05,183.49 155.56,183.15 156.07,182.80 156.57,182.46 157.08,182.11 157.58,181.76 158.08,181.40 158.58,181.05 159.08,180.68 159.57,180.32 160.06,179.95 160.55,179.58 161.04,179.21 161.52,178.83 162.01,178.46 162.49,178.07 162.96,177.69 163.44,177.30 163.91,176.91 164.38,176.52 164.85,176.12 165.32,175.72 165.78,175.32 166.24,174.91 166.70,174.51 167.16,174.10 167.61,173.68 168.06,173.27 168.51,172.85 168.95,172.42 169.40,172.00 169.84,171.57 170.28,171.14 170.71,170.71 171.14,170.28 171.57,169.84 172.00,169.40 172.42,168.95 172.85,168.51 173.27,168.06 173.68,167.61 174.10,167.16 174.51,166.70 174.91,166.24 175.32,165.78 175.72,165.32 176.12,164.85 176.52,164.38 176.91,163.91 177.30,163.44 177.69,162.96 178.07,162.49 178.46,162.01 178.83,161.52 179.21,161.04 179.58,160.55 179.95,160.06 180.32,159.57 180.68,159.08 181.05,158.58 181.40,158.08 181.76,157.58 182.11,157.08 182.46,156.57 182.80,156.07 183.15,155.56 183.49,155.05 183.82,154.53 184.16,154.02 184.49,153.50 184.81,152.98 185.14,152.46 185.46,151.94 185.77,151.41 186.09,150.88 186.40,150.35 186.70,149.82 187.01,149.29 187.31,148.76 187.61,148.22 187.90,147.68 188.19,147.14 188.48,146.60 188.76,146.05 189.04,145.51 189.32,144.96 189.60,144.41 189.87,143.86 190.13,143.31 190.40,142.76 190.66,142.20 190.92,141.64 191.17,141.08 191.42,140.52 191.67,139.96 191.91,139.40 192.15,138.83 192.39,138.27 192.62,137.70 192.85,137.13 193.08,136.56 193.30,135.99 193.52,135.42 193.73,134.84 193.95,134.27 194.15,133.69 194.36,133.11 194.56,132.53 194.76,131.95 194.95,131.37 195.14,130.78 195.33,130.20 195.51,129.62 195.69,129.03 195.87,128.44 196.04,127.85 196.21,127.26 196.38,126.67 196.54,126.08 196.70,125.49 196.85,124.89 197.00,124.30 197.15,123.70 197.29,123.11 197.43,122.51 197.57,121.91 197.70,121.31 197.83,120.71 197.96,120.11 198.08,119.51 198.20,118.91 198.31,118.30 198.42,117.70 198.53,117.10 198.63,116.49 198.73,115.89 198.83,115.28 198.92,114.67 199.01,114.07 199.09,113.46 199.17,112.85 199.25,112.24 199.32,111.63 199.39,111.02 199.46,110.41 199.52,109.80 199.58,109.19 199.63,108.58 199.68,107.97 199.73,107.36 199.77,106.74 199.81,106.13 199.85,105.52 199.88,104.91 199.91,104.29 199.93,103.68 199.95,103.07 199.97,102.45 199.98,101.84 199.99,101.23 200.00,100.61 200.00,100.00 200.00,99.39 199.99,98.77 199.98,98.16 199.97,97.55 199.95,96.93 199.93,96.32 199.91,95.71 199.88,95.09 199.85,94.48 199.81,93.87 199.77,93.26 199.73,92.64 199.68,92.03 199.63,91.42 199.58,90.81 199.52,90.20 199.46,89.59 199.39,88.98 199.32,88.37 199.25,87.76 199.17,87.15 199.09,86.54 199.01,85.93 198.92,85.33 198.83,84.72 198.73,84.11">
        <lane id="-B999B1000_0" index="0" speed="13.89" length="327.12" shape="1.65,102.95 1.67,103.63 1.69,104.23 1.72,104.83 1.75,105.43 1.79,106.03 1.83,106.64 1.87,107.24 1.91,107.84 1.96,108.45 2.01,109.05 2.07,109.64 2.13,110.24 2.20,110.84 2.27,111.45 2.34,112.04 2.42,112.64 2.50,113.25 2.57,113.85 2.66,114.43 2.75,115.03 2.85,115.63 2.95,116.23 3.05,116.83 3.15,117.41 3.26,118.01 3.37,118.61 3.49,119.20 3.61,119.78 3.73,120.37 3.86,120.97 3.99,121.56 4.13,122.15 4.27,122.74 4.40,123.32 4.55,123.91 4.70,124.50 4.85,125.09 5.00,125.66 5.16,126.24 5.33,126.82 5.50,127.41 5.66,127.99 5.84,128.56 6.02,129.15 6.19,129.71 6.38,130.29 6.57,130.88 6.76,131.44 6.95,132.01 7.15,132.58 7.36,133.16 7.55,133.72 7.77,134.28 7.98,134.86 8.19,135.41 8.41,135.97 8.63,136.53 8.86,137.10 9.09,137.66 9.32,138.20 9.56,138.77 9.80,139.32 10.04,139.87 10.29,140.43 10.54,140.98 10.79,141.53 11.04,142.07 11.31,142.62 11.57,143.17 11.83,143.69 12.11,144.23 12.38,144.78 12.66,145.32 12.94,145.86 13.22,146.38 13.51,146.92 13.79,147.45 14.09,147.98 14.38,148.49 14.69,149.02 14.99,149.55 15.29,150.06 15.61,150.59 15.91,151.12 16.22,151.61 16.55,152.13 16.87,152.65 17.18,153.15 17.52,153.66 17.85,154.18 18.18,154.66 18.52,155.17 18.86,155.67 19.21,156.17 19.54,156.65 19.90,157.15 20.25,157.65 20.61,158.13 20.96,158.61 21.33,159.10 21.70,159.59 22.06,160.06 22.44,160.54 22.80,161.02 23.17,161.48 23.55,161.95 23.94,162.42 24.32,162.89 24.70,163.35 25.10,163.81 25.49,164.28 25.88,164.72 26.29,165.18 26.69,165.64 27.08,166.08 27.50,166.53 27.91,166.98 28.31,167.40 28.74,167.84 29.16,168.29 29.57,168.72 30.00,169.16 30.42,169.58 30.84,170.00 31.28,170.43 31.71,170.84 32.16,171.26 32.60,171.69 33.02,172.09 33.47,172.50 33.92,172.92 34.36,173.31 34.82,173.71 35.28,174.12 35.72,174.51 36.19,174.90 36.65,175.30 37.11,175.68 37.58,176.06 38.05,176.45 38.52,176.83 38.98,177.20 39.46,177.56 39.94,177.94 40.41,178.30 40.90,178.67 41.39,179.04 41.87,179.39 42.35,179.75 42.85,180.10 43.35,180.46 43.83,180.79 44.33,181.14 44.83,181.48 45.34,181.82 45.82,182.15 46.34,182.48 46.85,182.82 47.35,183.13 47.87,183.45 48.39,183.78 48.88,184.09 49.41,184.39 49.94,184.71 50.45,185.01 50.98,185.31 51.51,185.62 52.02,185.91 52.55,186.21 53.08,186.49 53.62,186.78 54.14,187.06 54.68,187.34 55.22,187.62 55.77,187.89 56.31,188.17 56.83,188.43 57.38,188.69 57.93,188.96 58.47,189.21 59.02,189.46 59.57,189.71 60.13,189.96 60.68,190.20 61.23,190.44 61.80,190.68 62.34,190.91 62.90,191.14 63.47,191.37 64.03,191.59 64.59,191.81 65.14,192.02 65.72,192.23 66.28,192.45 66.84,192.64 67.42,192.85 67.99,193.05 68.56,193.24 69.12,193.43 69.71,193.62 70.29,193.81 70.85,193.98 71.44,194.16 72.01,194.34 72.59,194.50 73.18,194.67 73.76,194.84 74.34,195.00 74.91,195.15 75.50,195.30 76.09,195.45 76.68,195.60 77.26,195.73 77.85,195.87 78.44,196.01 79.03,196.14 79.63,196.27 80.22,196.39 80.80,196.51 81.39,196.63 81.99,196.74 82.59,196.85 83.17,196.95 83.77,197.05 84.37,197.15 84.97,197.25 85.57,197.34 86.15,197.43 86.75,197.50 87.36,197.58 87.96,197.66 88.55,197.73 89.16,197.80 89.76,197.87 90.36,197.93 90.95,197.99 91.55,198.04 92.16,198.09 92.76,198.13 93.36,198.17 93.97,198.21 94.57,198.25 95.17,198.28 95.77,198.31 96.37,198.33 96.98,198.35 97.59,198.37 98.19,198.38 98.80,198.39 99.40,198.40 100.00,198.40 100.60,198.40 101.20,198.39 101.81,198.38 102.41,198.37 103.02,198.35 103.63,198.33 104.23,198.31 104.83,198.28 105.43,198.25 106.03,198.21 106.64,198.17 107.24,198.13 107.84,198.09 108.45,198.04 109.05,197.99 109.64,197.93 110.24,197.87 110.84,197.80 111.45,197.73 112.04,197.66 112.64,197.58 113.25,197.50 113.85,197.43 114.43,197.34 115.03,197.25 115.63,197.15 116.23,197.05 116.83,196.95 117.41,196.85 118.01,196.74 118.61,196.63 119.20,196.51 119.78,196.39 120.37,196.27 120.97,196.14 121.56,196.01 122.15,195.87 122.74,195.73 123.32,195.60 123.91,195.45 124.50,195.30 125.09,195.15 125.66,195.00 126.24,194.84 126.82,194.67 127.41,194.50 127.99,194.34 128.56,194.16 129.15,193.98 129.71,193.81 130.29,193.62 130.88,193.43 131.44,193.24 132.01,193.05 132.58,192.85 133.16,192.64 133.72,192.45 134.28,192.23 134.86,192.02 135.41,191.81 135.97,191.59 136.53,191.37 137.10,191.14 137.66,190.91 138.20,190.68 138.77,190.44 139.32,190.20 139.87,189.96 140.43,189.71 140.98,189.46 141.53,189.21 142.07,188.96 142.62,188.69 143.17,188.43 143.69,188.17 144.23,187.89 144.78,187.62 145.32,187.34 145.86,187.06 146.38,186.78 146.92,186.49 147.45,186.21 147.98,185.91 148.49,185.62 149.02,185.31 149.55,185.01 150.06,184.71 150.59,184.39 151.12,184.09 151.61,183.78 152.13,183.45 152.65,183.13 153.15,182.82 153.66,182.48 154.18,182.15 154.66,181.82 155.17,181.48 155.67,181.14 156.17,180.79 156.65,180.46 157.15,180.10 157.65,179.75 158.13,179.39 158.61,179.04 159.10,178.67 159.59,178.30 160.06,177.94 160.54,177.56 161.02,177.20 161.48,176.83 161.95,176.45 162.42,176.06 162.89,175.68 163.35,175.30 163.81,174.90 164.28,174.51 164.72,174.12 165.18,173.71 165.64,173.31 166.08,172.92 166.53,172.50 166.98,172.09 167.40,171.69 167.84,171.26 168.29,170.84 168.72,170.43 169.16,170.00 169.58,169.58 170.00,169.16 170.43,168.72 170.84,168.29 171.26,167.84 171.69,167.40 172.09,166.98 172.50,166.53 172.92,166.08 173.31,165.64 173.71,165.18 174.12,164.72 174.51,164.28 174.90,163.81 175.30,163.35 175.68,162.89 176.06,162.42 176.45,161.95 176.83,161.48 177.20,161.02 177.56,160.54 177.94,160.06 178.30,159.59 178.67,159.10 179.04,158.61 179.39,158.13 179.75,157.65 180.10,157.15 180.46,156.65 180.79,156.17 181.14,155.67 181.48,155.17 181.82,154.66 182.15,154.18 182.48,153.66 182.82,153.15 183.13,152.65 183.45,152.13 183.78,151.61 184.09,151.12 184.39,150.59 184.71,150.06 185.01,149.55 185.31,149.02 185.62,148.49 185.91,147.98 186.21,147.45 186.49,146.92 186.78,146.38 187.06,145.86 187.34,145.32 187.62,144.78 187.89,144.23 188.17,143.69 188.43,143.17 188.69,142.62 188.96,142.07 189.21,141.53 189.46,140.98 189.71,140.43 189.96,139.87 190.20,139.32 190.44,138.77 190.68,138.20 190.91,137.66 191.14,137.10 191.37,136.53 191.59,135.97 191.81,135.41 192.02,134.86 192.23,134.28 192.45,133.72 192.64,133.16 192.85,132.58 193.05,132.01 193.24,131.44 193.43,130.88 193.62,130.29 193.81,129.71 193.98,129.15 194.16,128.56 194.34,127.99 194.50,127.41 194.67,126.82 194.84,126.24 195.00,125.66 195.15,125.09 195.30,124.50 195.45,123.91 195.60,123.32 195.73,122.74 195.87,122.15 196.01,121.56 196.14,120.97 196.27,120.37 196.39,119.78 196.51,119.20 196.63,118.61 196.74,118.01 196.85,117.41 196.95,116.83 197.05,116.23 197.15,115.63 197.25,115.03 197.34,114.43 197.43,113.85 197.50,113.25 197.58,112.64 197.66,112.04 197.73,111.45 197.80,110.84 197.87,110.24 197.93,109.64 197.99,109.05 198.04,108.45 198.09,107.84 198.13,107.24 198.17,106.64 198.21,106.03 198.25,105.43 198.28,104.83 198.31,104.23 198.33,103.63 198.35,103.02 198.37,102.41 198.38,101.81 198.39,101.20 198.40,100.60 198.40,100.00 198.40,99.40 198.39,98.80 198.38,98.19 198.37,97.59 198.35,96.98 198.33,96.37 198.31,95.77 198.28,95.17 198.25,94.57 198.21,93.97 198.17,93.36 198.13,92.76 198.09,92.16 198.04,91.55 197.99,90.95 197.93,90.36 197.87,89.76 197.80,89.16 197.73,88.55 197.66,87.96 197.58,87.36 197.50,86.75 197.43,86.15 197.34,85.57 197.25,84.97 197.18,84.52"/>
    </edge>
    <edge id="B998B997" from="B998" to="J0" priority="-1" shape="198.63,83.51 198.53,82.90 198.42,82.30 198.31,81.70 198.20,81.09 198.08,80.49 197.96,79.89 197.83,79.29 197.70,78.69 197.57,78.09 197.43,77.49 197.29,76.89 197.15,76.30 197.00,75.70 196.85,75.11 196.70,74.51 196.54,73.92 196.38,73.33 196.21,72.74 196.04,72.15 195.87,71.56 195.69,70.97 195.51,70.38 195.33,69.80 195.14,69.22 194.95,68.63 194.76,68.05 194.56,67.47 194.36,66.89 194.15,66.31 193.95,65.73 193.73,65.16 193.52,64.58 193.30,64.01 193.08,63.44 192.85,62.87 192.62,62.30 192.39,61.73 192.15,61.17 191.91,60.60 191.67,60.04 191.42,59.48 191.17,58.92 190.92,58.36 190.66,57.80 190.40,57.24 190.13,56.69 189.87,56.14 189.60,55.59 189.32,55.04 189.04,54.49 188.76,53.95 188.48,53.40 188.19,52.86 187.90,52.32 187.61,51.78 187.31,51.24 187.01,50.71 186.70,50.18 186.40,49.65 186.09,49.12 185.77,48.59 185.46,48.06 185.14,47.54 184.81,47.02 184.49,46.50 184.16,45.98 183.82,45.47 183.49,44.95 183.15,44.44 182.80,43.93 182.46,43.43 182.11,42.92 181.76,42.42 181.40,41.92 181.05,41.42 180.68,40.92 180.32,40.43 179.95,39.94 179.58,39.45 179.21,38.96 178.83,38.48 178.46,37.99 178.07,37.51 177.69,37.04 177.30,36.56 176.91,36.09 176.52,35.62 176.12,35.15 175.72,34.68 175.32,34.22 174.91,33.76 174.51,33.30 174.10,32.84 173.68,32.39 173.27,31.94 172.85,31.49 172.42,31.05 172.00,30.60 171.57,30.16 171.14,29.72 170.71,29.29 170.28,28.86 169.84,28.43 169.40,28.00 168.95,27.58 168.51,27.15 168.06,26.73 167.61,26.32 167.16,25.90 166.70,25.49 166.24,25.09 165.78,24.68 165.32,24.28 164.85,23.88 164.38,23.48 163.91,23.09 163.44,22.70 162.96,22.31 162.49,21.93 162.01,21.54 161.52,21.17 161.04,20.79 160.55,20.42 160.06,20.05 159.57,19.68 159.08,19.32 158.58,18.95 158.08,18.60 157.58,18.24 157.08,17.89 156.57,17.54 156.07,17.20 155.56,16.85 155.05,16.51 154.53,16.18 154.02,15.84 153.50,15.51 152.98,15.19 152.46,14.86 151.94,14.54 151.41,14.23 150.88,13.91 150.35,13.60 149.82,13.30 149.29,12.99 148.76,12.69 148.22,12.39 147.68,12.10 147.14,11.81 146.60,11.52 146.05,11.24 145.51,10.96 144.96,10.68 144.41,10.40 143.86,10.13 143.31,9.87 142.76,9.60 142.20,9.34 141.64,9.08 141.08,8.83 140.52,8.58 139.96,8.33 139.40,8.09 138.83,7.85 138.27,7.61 137.70,7.38 137.13,7.15 136.56,6.92 135.99,6.70 135.42,6.48 134.84,6.27 134.27,6.05 133.69,5.85 133.11,5.64 132.53,5.44 131.95,5.24 131.37,5.05 130.78,4.86 130.20,4.67 129.62,4.49 129.03,4.31 128.44,4.13 127.85,3.96 127.26,3.79 126.67,3.62 126.08,3.46 125.49,3.30 124.89,3.15 124.30,3.00 123.70,2.85 123.11,2.71 122.51,2.57 121.91,2.43 121.31,2.30 120.71,2.17 120.11,2.04 119.51,1.92 118.91,1.80 118.30,1.69 117.70,1.58 117.10,1.47 116.49,1.37 115.89,1.27 115.28,1.17 114.67,1.08 114.07,0.99 113.46,0.91 112.85,0.83 112.24,0.75 111.63,0.68 111.02,0.61 110.41,0.54 109.80,0.48 109.19,0.42 108.58,0.37 107.97,0.32 107.36,0.27 106.74,0.23 106.13,0.19 105.52,0.15 104.91,0.12 104.29,0.09 103.68,0.07 103.07,0.05 102.45,0.03 101.84,0.02 101.23,0.01 100.61,0.00 100.00,0.00 99.39,0.00 98.77,0.01 98.16,0.02 97.55,0.03 96.93,0.05 96.32,0.07 95.71,0.09 95.09,0.12 94.48,0.15 93.87,0.19 93.26,0.23 92.64,0.27 92.03,0.32 91.42,0.37 90.81,0.42 90.20,0.48 89.59,0.54 88.98,0.61 88.37,0.68 87.76,0.75 87.15,0.83 86.54,0.91 85.93,0.99 85.33,1.08 84.72,1.17 84.11,1.27 83.51,1.37 82.90,1.47 82.30,1.58 81.70,1.69 81.09,1.80 80.49,1.92 79.89,2.04 79.29,2.17 78.69,2.30 78.09,2.43 77.49,2.57 76.89,2.71 76.30,2.85 75.70,3.00 75.11,3.15 74.51,3.30 73.92,3.46 73.33,3.62 72.74,3.79 72.15,3.96 71.56,4.13 70.97,4.31 70.38,4.49 69.80,4.67 69.22,4.86 68.63,5.05 68.05,5.24 67.47,5.44 66.89,5.64 66.31,5.85 65.73,6.05 65.16,6.27 64.58,6.48 64.01,6.70 63.44,6.92 62.87,7.15 62.30,7.38 61.73,7.61 61.17,7.85 60.60,8.09 60.04,8.33 59.48,8.58 58.92,8.83 58.36,9.08 57.80,9.34 57.24,9.60 56.69,9.87 56.14,10.13 55.59,10.40 55.04,10.68 54.49,10.96 53.95,11.24 53.40,11.52 52.86,11.81 52.32,12.10 51.78,12.39 51.24,12.69 50.71,12.99 50.18,13.30 49.65,13.60 49.12,13.91 48.59,14.23 48.06,14.54 47.54,14.86 47.02,15.19 46.50,15.51 45.98,15.84 45.47,16.18 44.95,16.51 44.44,16.85 43.93,17.20 43.43,17.54 42.92,17.89 42.42,18.24 41.92,18.60 41.42,18.95 40.92,19.32 40.43,19.68 39.94,20.05 39.45,20.42 38.96,20.79 38.48,21.17 37.99,21.54 37.51,21.93 37.04,22.31 36.56,22.70 36.09,23.09 35.62,23.48 35.15,23.88 34.68,24.28 34.22,24.68 33.76,25.09 33.30,25.49 32.84,25.90 32.39,26.32 31.94,26.73 31.49,27.15 31.05,27.58 30.60,28.00 30.16,28.43 29.72,28.86 29.29,29.29 28.86,29.72 28.43,30.16 28.00,30.60 27.58,31.05 27.15,31.49 26.73,31.94 26.32,32.39 25.90,32.84 25.49,33.30 25.09,33.76 24.68,34.22 24.28,34.68 23.88,35.15 23.48,35.62 23.09,36.09 22.70,36.56 22.31,37.04 21.93,37.51 21.54,37.99 21.17,38.48 20.79,38.96 20.42,39.45 20.05,39.94 19.68,40.43 19.32,40.92 18.95,41.42 18.60,41.92 18.24,42.42 17.89,42.92 17.54,43.43 17.20,43.93 16.85,44.44 16.51,44.95 16.18,45.47 15.84,45.98 15.51,46.50 15.19,47.02 14.86,47.54 14.54,48.06 14.23,48.59 13.91,49.12 13.60,49.65 13.30,50.18 12.99,50.71 12.69,51.24 12.39,51.78 12.10,52.32 11.81,52.86 11.52,53.40 11.24,53.95 10.96,54.49 10.68,55.04 10.40,55.59 10.13,56.14 9.87,56.69 9.60,57.24 9.34,57.80 9.08,58.36 8.83,58.92 8.58,59.48 8.33,60.04 8.09,60.60 7.85,61.17 7.61,61.73 7.38,62.30 7.15,62.87 6.92,63.44 6.70,64.01 6.48,64.58 6.27,65.16 6.05,65.73 5.85,66.31 5.64,66.89 5.44,67.47 5.24,68.05 5.05,68.63 4.86,69.22 4.67,69.80 4.49,70.38 4.31,70.97 4.13,71.56 3.96,72.15 3.79,72.74 3.62,73.33 3.46,73.92 3.30,74.51 3.15,75.11 3.00,75.70 2.85,76.30 2.71,76.89 2.57,77.49 2.43,78.09 2.30,78.69 2.17,79.29 2.04,79.89 1.92,80.49 1.80,81.09 1.69,81.70 1.58,82.30 1.47,82.90 1.37,83.51 1.27,84.11 1.17,84.72 1.08,85.33 0.99,85.93 0.91,86.54 0.83,87.15 0.75,87.76 0.68,88.37 0.61,88.98 0.54,89.59 0.48,90.20 0.42,90.81 0.37,91.42 0.32,92.03 0.27,92.64 0.23,93.26 0.19,93.87 0.15,94.48 0.12,95.09 0.09,95.71 0.07,96.32 0.05,96.93 0.03,97.55 0.02,98.16 0.01,98.77 0.00,99.39 0.00,100.00 0.00,100.61 0.01,101.23 0.02,101.84 0.03,102.45 0.05,103.01">
        <lane id="B998B997_0" index="0" speed="13.89" length="300.61" shape="197.03,83.62 196.95,83.17 196.85,82.59 196.74,81.99 196.63,81.39 196.51,80.80 196.39,80.22 196.27,79.63 196.14,79.03 196.01,78.44 195.87,77.85 195.73,77.26 195.60,76.68 195.45,76.09 195.30,75.50 195.15,74.91 195.00,74.34 194.84,73.76 194.67,73.18 194.50,72.59 194.34,72.01 194.16,71.44 193.98,70.85 193.81,70.29 193.62,69.71 193.43,69.12 193.24,68.56 193.05,67.99 192.85,67.42 192.64,66.84 192.45,66.28 192.23,65.72 192.02,65.14 191.81,64.59 191.59,64.03 191.37,63.47 191.14,62.90 190.91,62.34 190.68,61.80 190.44,61.23 190.20,60.68 189.96,60.13 189.71,59.57 189.46,59.02 189.21,58.47 188.96,57.93 188.69,57.38 188.43,56.83 188.17,56.31 187.89,55.77 187.62,55.22 187.34,54.68 187.06,54.14 186.78,53.62 186.49,53.08 186.21,52.55 185.91,52.02 185.62,51.51 185.31,50.98 185.01,50.45 184.71,49.94 184.39,49.41 184.09,48.88 183.78,48.39 183.45,47.87 183.13,47.35 182.82,46.85 182.48,46.34 182.15,45.82 181.82,45.34 181.48,44.83 181.14,44.33 180.79,43.83 180.46,43.35 180.10,42.85 179.75,42.35 179.39,41.87 179.04,41.39 178.67,40.90 178.30,40.41 177.94,39.94 177.56,39.46 177.20,38.98 176.83,38.52 176.45,38.05 176.06,37.58 175.68,37.11 175.30,36.65 174.90,36.19 174.51,35.72 174.12,35.28 173.71,34.82 173.31,34.36 172.92,33.92 172.50,33.47 172.09,33.02 171.69,32.60 171.26,32.16 170.84,31.71 170.43,31.28 170.00,30.84 169.58,30.42 169.16,30.00 168.72,29.57 168.29,29.16 167.84,28.74 167.40,28.31 166.98,27.91 166.53,27.50 166.08,27.08 165.64,26.69 165.18,26.29 164.72,25.88 164.28,25.49 163.81,25.10 163.35,24.70 162.89,24.32 162.42,23.94 161.95,23.55 161.48,23.17 161.02,22.80 160.54,22.44 160.06,22.06 159.59,21.70 159.10,21.33 158.61,20.96 158.13,20.61 157.65,20.25 157.15,19.90 156.65,19.54 156.17,19.21 155.67,18.86 155.17,18.52 154.66,18.18 154.18,17.85 153.66,17.52 153.15,17.18 152.65,16.87 152.13,16.55 151.61,16.22 151.12,15.91 150.59,15.61 150.06,15.29 149.55,14.99 149.02,14.69 148.49,14.38 147.98,14.09 147.45,13.79 146.92,13.51 146.38,13.22 145.86,12.94 145.32,12.66 144.78,12.38 144.23,12.11 143.69,11.83 143.17,11.57 142.62,11.31 142.07,11.04 141.53,10.79 140.98,10.54 140.43,10.29 139.87,10.04 139.32,9.80 138.77,9.56 138.20,9.32 137.66,9.09 137.10,8.86 136.53,8.63 135.97,8.41 135.41,8.19 134.86,7.98 134.28,7.77 133.72,7.55 133.16,7.36 132.58,7.15 132.01,6.95 131.44,6.76 130.88,6.57 130.29,6.38 129.71,6.19 129.15,6.02 128.56,5.84 127.99,5.66 127.41,5.50 126.82,5.33 126.24,5.16 125.66,5.00 125.09,4.85 124.50,4.70 123.91,4.55 123.32,4.40 122.74,4.27 122.15,4.13 121.56,3.99 120.97,3.86 120.37,3.73 119.78,3.61 119.20,3.49 118.61,3.37 118.01,3.26 117.41,3.15 116.83,3.05 116.23,2.95 115.63,2.85 115.03,2.75 114.43,2.66 113.85,2.57 113.25,2.50 112.64,2.42 112.04,2.34 111.45,2.27 110.84,2.20 110.24,2.13 109.64,2.07 109.05,2.01 108.45,1.96 107.84,1.91 107.24,1.87 106.64,1.83 106.03,1.79 105.43,1.75 104.83,1.72 104.23,1.69 103.63,1.67 103.02,1.65 102.41,1.63 101.81,1.62 101.20,1.61 100.60,1.60 100.00,1.60 99.40,1.60 98.80,1.61 98.19,1.62 97.59,1.63 96.98,1.65 96.37,1.67 95.77,1.69 95.17,1.72 94.57,1.75 93.97,1.79 93.36,1.83 92.76,1.87 92.16,1.91 91.55,1.96 90.95,2.01 90.36,2.07 89.76,2.13 89.16,2.20 88.55,2.27 87.96,2.34 87.36,2.42 86.75,2.50 86.15,2.57 85.57,2.66 84.97,2.75 84.37,2.85 83.77,2.95 83.17,3.05 82.59,3.15 81.99,3.26 81.39,3.37 80.80,3.49 80.22,3.61 79.63,3.73 79.03,3.86 78.44,3.99 77.85,4.13 77.26,4.27 76.68,4.40 76.09,4.55 75.50,4.70 74.91,4.85 74.34,5.00 73.76,5.16 73.18,5.33 72.59,5.50 72.01,5.66 71.44,5.84 70.85,6.02 70.29,6.19 69.71,6.38 69.12,6.57 68.56,6.76 67.99,6.95 67.42,7.15 66.84,7.36 66.28,7.55 65.72,7.77 65.14,7.98 64.59,8.19 64.03,8.41 63.47,8.63 62.90,8.86 62.34,9.09 61.80,9.32 61.23,9.56 60.68,9.80 60.13,10.04 59.57,10.29 59.02,10.54 58.47,10.79 57.93,11.04 57.38,11.31 56.83,11.57 56.31,11.83 55.77,12.11 55.22,12.38 54.68,12.66 54.14,12.94 53.62,13.22 53.08,13.51 52.55,13.79 52.02,14.09 51.51,14.38 50.98,14.69 50.45,14.99 49.94,15.29 49.41,15.61 48.88,15.91 48.39,16.22 47.87,16.55 47.35,16.87 46.85,17.18 46.34,17.52 45.82,17.85 45.34,18.18 44.83,18.52 44.33,18.86 43.83,19.21 43.35,19.54 42.85,19.90 42.35,20.25 41.87,20.61 41.39,20.96 40.90,21.33 40.41,21.70 39.94,22.06 39.46,22.44 38.98,22.80 38.52,23.17 38.05,23.55 37.58,23.94 37.11,24.32 36.65,24.70 36.19,25.10 35.72,25.49 35.28,25.88 34.82,26.29 34.36,26.69 33.92,27.08 33.47,27.50 33.02,27.91 32.60,28.31 32.16,28.74 31.71,29.16 31.28,29.57 30.84,30.00 30.42,30.42 30.00,30.84 29.57,31.28 29.16,31.71 28.74,32.16 28.31,32.60 27.91,33.02 27.50,33.47 27.08,33.92 26.69,34.36 26.29,34.82 25.88,35.28 25.49,35.72 25.10,36.19 24.70,36.65 24.32,37.11 23.94,37.58 23.55,38.05 23.17,38.52 22.80,38.98 22.44,39.46 22.06,39.94 21.70,40.41 21.33,40.90 20.96,41.39 20.61,41.87 20.25,42.35 19.90,42.85 19.54,43.35 19.21,43.83 18.86,44.33 18.52,44.83 18.18,45.34 17.85,45.82 17.52,46.34 17.18,46.85 16.87,47.35 16.55,47.87 16.22,48.39 15.91,48.88 15.61,49.41 15.29,49.94 14.99,50.45 14.69,50.98 14.38,51.51 14.09,52.02 13.79,52.55 13.51,53.08 13.22,53.62 12.94,54.14 12.66,54.68 12.38,55.22 12.11,55.77 11.83,56.31 11.57,56.83 11.31,57.38 11.04,57.93 10.79,58.47 10.54,59.02 10.29,59.57 10.04,60.13 9.80,60.68 9.56,61.23 9.32,61.80 9.09,62.34 8.86,62.90 8.63,63.47 8.41,64.03 8.19,64.59 7.98,65.14 7.77,65.72 7.55,66.28 7.36,66.84 7.15,67.42 6.95,67.99 6.76,68.56 6.57,69.12 6.38,69.71 6.19,70.29 6.02,70.85 5.84,71.44 5.66,72.01 5.50,72.59 5.33,73.18 5.16,73.76 5.00,74.34 4.85,74.91 4.70,75.50 4.55,76.09 4.40,76.68 4.27,77.26 4.13,77.85 3.99,78.44 3.86,79.03 3.73,79.63 3.61,80.22 3.49,80.80 3.37,81.39 3.26,81.99 3.15,82.59 3.05,83.17 2.95,83.77 2.85,84.37 2.75,84.97 2.66,85.57 2.57,86.15 2.50,86.75 2.42,87.36 2.34,87.96 2.27,88.55 2.20,89.16 2.13,89.76 2.07,90.36 2.01,90.95 1.96,91.55 1.91,92.16 1.87,92.76 1.83,93.36 1.79,93.97 1.75,94.57 1.72,95.17 1.69,95.77 1.67,96.37 1.65,96.98 1.63,97.59 1.62,98.19 1.61,98.80 1.60,99.40 1.60,100.00 1.60,100.60 1.61,101.20 1.62,101.81 1.63,102.41 1.65,102.95"/>
    </edge>
    <edge id="B998B999" from="B998" to="B999" priority="-1">
        <lane id="B998B999_0" index="0" speed="13.89" length="0.61" shape="200.23,83.40 200.28,83.70"/>
    </edge>