<?xml version="1.0" encoding="UTF-8"?>

<!-- generated on 2025-05-05 21:40:42 by Eclipse SUMO netedit Version 1.20.0
-->

<additional xmlns:xsi="http://www.w3.org/2001/XMLSchema-instance" xsi:noNamespaceSchemaLocation="http://sumo.dlr.de/xsd/additional_file.xsd">
    <!-- Other additionals -->
    <rerouter id="rr_0" edges="B999B1000.327">
        <interval begin="0" end="1e9">
           <destProbReroute id="B999B1000" probability="1"/>
        </interval>
    </rerouter>
    <rerouter id="rr_1" edges="B999B1000">
        <interval begin="0" end="1e9">
           <destProbReroute id="B999B1000.327" probability="1"/>
        </interval>
    </rerouter>
</additional>
