<routes xmlns:xsi="http://www.w3.org/2001/XMLSchema-instance" xsi:noNamespaceSchemaLocation="http://sumo.dlr.de/xsd/routes_file.xsd">
    <vType id="car" color="cyan" minGap="0.25" accel="1.5" decel="2.0" tau="0.75" sigma="1.0"/>
    <flow id="v" type="car" begin="0" number="80" period="2" departSpeed="max" from="E1" to="B999B1000.327"/>
</routes>